14
Generated with https://api.leruli.com/latest/references/BEG2019,BCE2020,rdkit/bibtex
C -1.575 0.575 0.143
C -0.692 -0.575 -0.326
C 0.692 -0.575 0.326
C 1.575 0.575 -0.143
H -1.147 1.535 -0.134
H -1.69 0.549 1.225
H -2.562 0.502 -0.308
H -0.577 -0.526 -1.411
H -1.19 -1.519 -0.089
H 0.577 -0.527 1.411
H 1.189 -1.519 0.089
H 2.564 0.498 0.303
H 1.15 1.535 0.14
H 1.685 0.553 -1.225
