33
Generated with https://api.leruli.com/latest/references/BEG2019,BCE2020,rdkit/bibtex
C -3.662 1.585 0.118
C -3.868 0.08 0.263
C -5.319 -0.291 -0.031
C -2.924 -0.693 -0.675
C -1.483 -0.474 -0.317
C -0.679 0.387 -1.053
C 0.638 0.61 -0.695
C 1.185 -0.021 0.414
C 2.622 0.228 0.824
C 2.879 1.703 1.13
C 3.5 -0.295 -0.294
O 3.98 -1.397 -0.324
O 3.671 0.583 -1.291
C 0.388 -0.892 1.145
C -0.928 -1.112 0.785
H -3.884 1.902 -0.899
H -2.635 1.856 0.349
H -4.321 2.125 0.795
H -3.634 -0.205 1.295
H -5.576 -0.033 -1.057
H -5.991 0.245 0.635
H -5.481 -1.358 0.105
H -3.105 -0.373 -1.703
H -3.156 -1.758 -0.604
H -1.086 0.888 -1.919
H 1.246 1.276 -1.289
H 2.843 -0.379 1.707
H 3.902 1.845 1.47
H 2.719 2.315 0.248
H 2.201 2.035 1.914
H 4.205 0.185 -1.995
H 0.8 -1.402 2.004
H -1.532 -1.794 1.366
